
**** 04/12/18 18:38:42 ******* PSpice Lite (March 2016) ******* ID# 10813 ****

 ** Profile: "SCHEMATIC1-ECE250HW5"  [ C:\Cadence\Pspice Work\ece250hw5-pspicefiles\schematic1\ECE250HW5.sim ] 


 ****     CIRCUIT DESCRIPTION


******************************************************************************




** Creating circuit file "ECE250HW5.cir" 
** WARNING: THIS AUTOMATICALLY GENERATED FILE MAY BE OVERWRITTEN BY SUBSEQUENT SIMULATIONS

*Libraries: 
* Profile Libraries :
* Local Libraries :
.LIB "../../../ece250hw5-pspicefiles/ece250hw5.lib" 
* From [PSPICE NETLIST] section of C:\SPB_Data\cdssetup\OrCAD_PSpice\17.2.0\PSpice.ini file:
.lib "nomd.lib" 

*Analysis directives: 
.DC LIN V_Vin 0 5 1m 
.STEP PARAM Vt_val LIST 1 1.25 1.5 2 
.OPTIONS ADVCONV
.PROBE64 V(alias(*)) I(alias(*)) W(alias(*)) D(alias(*)) NOISE(alias(*)) 
.INC "..\SCHEMATIC1.net" 



**** INCLUDING SCHEMATIC1.net ****
* source ECE250HW5
V_V2         VIN2 0 PWL
+ TIME_SCALE_FACTOR={1/60}
+ VALUE_SCALE_FACTOR=30
+repeat forever
+(0,0) (0.25,1) (0.75,-1) (1,0)
+endrepeat
V_V3         VIN3 0 PWL
+ TIME_SCALE_FACTOR={1/60}
+ VALUE_SCALE_FACTOR=15
+repeat forever
+(0,0) (0.25,1) (0.75,-1) (1,0)
+endrepeat
R_R7         VIN2 VX 1k 
C_C1         N05391 0 100u 
C_C2         0 N05395 100u 
V_V7         N05391 0  DC 15
V_V8         0 N05395  DC 15
X_U1A         VX 0 N05391 N05395 VOUT2 TL084/301/TI
D_D12         VX N05391 D1N4004 
D_D13         N05395 VX D1N4004 
R_R8         VIN3 N07041 1k 
R_R9         N06975 0 500 
R_R10         N07003 0 1k 
R_R11         N07011 VOUT3N 500 
R_R12         VOUT3P VOUT3N 1k 
R_R14         VOUT4N VOUT4P 1k 
V_V9         VIN4 0 PWL
+ TIME_SCALE_FACTOR={1/60}
+ VALUE_SCALE_FACTOR=15
+repeat forever
+(0,0) (0.25,1) (0.75,-1) (1,0)
+endrepeat
D_D18         VIN4 VOUT4P D1N4733 
D_D19         0 VOUT4N D1N4733 
V_Vcc         N09163 0  DC 5
V_Vin         VIN 0  DC 0
R_R1         VOUT N09163 10k 
M_M1         VOUT VIN 0 0 Mx           
.model         S_D14 VSWITCH Roff=1e6 Ron=0.1 Voff=0 Von=1m
S_SD14         N07041 VOUT3P N07041 VOUT3P S_D14
.model         S_D15 VSWITCH Roff=1e6 Ron=0.1 Voff=0 Von=1m
S_SD15         N06975 VOUT3P N06975 VOUT3P S_D15
.model         S_D16 VSWITCH Roff=1e6 Ron=0.1 Voff=0 Von=1m
S_SD16         N07011 VIN3 N07011 VIN3 S_D16
.model         S_D17 VSWITCH Roff=1e6 Ron=0.1 Voff=0 Von=1m
S_SD17         VOUT3N N07003 VOUT3N N07003 S_D17
.PARAM  vt_val=1

**** RESUMING ECE250HW5.cir ****
.END

WARNING(ORPSIM-15223): Library file "C:\Cadence\Pspice Work\ece250hw5-pspicefiles\ece250hw5.lib" has changed since index file ece250hw5.ind was created.

WARNING(ORPSIM-15227): The timestamp changed from Thu Apr 12 18:27:47 2018 to Thu Apr 12 18:38:31 2018.

INFO(ORPSIM-15422): Making new index file ece250hw5.ind for library file ece250hw5.lib.

Index has 1 entries from 1 file(s).

**** 04/12/18 18:38:42 ******* PSpice Lite (March 2016) ******* ID# 10813 ****

 ** Profile: "SCHEMATIC1-ECE250HW5"  [ C:\Cadence\Pspice Work\ece250hw5-pspicefiles\schematic1\ECE250HW5.sim ] 


 ****     Diode MODEL PARAMETERS


******************************************************************************




               D1N4004         D1N4733         D1N4001         X_U1A.DX        
          IS   14.110000E-09    1.214000E-15   14.110000E-09  800.000000E-18 
           N    1.984                           1.984                        
         ISR                    2.601000E-09                                 
         IKF   94.81                           94.81                         
          BV  600               5.1            75                            
         IBV   10.000000E-06     .70507        10.000000E-06                 
         NBV                     .74348                                      
        IBVL                    4.827400E-03                                 
        NBVL                    6.7393                                       
          RS     .03389         1.078            .03389                      
          TT    5.700000E-06                    5.700000E-06                 
         CJO   25.890000E-12  185.000000E-12   25.890000E-12                 
          VJ     .3245           .75             .3245                       
           M     .44             .3509           .44                         
        TBV1                  176.471000E-06                                 


**** 04/12/18 18:38:42 ******* PSpice Lite (March 2016) ******* ID# 10813 ****

 ** Profile: "SCHEMATIC1-ECE250HW5"  [ C:\Cadence\Pspice Work\ece250hw5-pspicefiles\schematic1\ECE250HW5.sim ] 


 ****     Junction FET MODEL PARAMETERS


******************************************************************************




               X_U1A.JX        
               PJF             
         VTO   -1            
        BETA  270.100000E-06 
          IS   15.000000E-12 


**** 04/12/18 18:38:42 ******* PSpice Lite (March 2016) ******* ID# 10813 ****

 ** Profile: "SCHEMATIC1-ECE250HW5"  [ C:\Cadence\Pspice Work\ece250hw5-pspicefiles\schematic1\ECE250HW5.sim ] 


 ****     MOSFET MODEL PARAMETERS


******************************************************************************




               Mx              
               NMOS            
       LEVEL    1            
           L  100.000000E-06 
           W  100.000000E-06 
         VTO    1            
          KP    1.000000E-03 
       GAMMA    0            
         PHI     .6          
      LAMBDA    0            
          IS   10.000000E-15 
          JS    0            
          PB     .8          
        PBSW     .8          
          CJ    0            
        CJSW    0            
        CGSO    0            
        CGDO    0            
        CGBO    0            
         TOX    0            
          XJ    0            
       UCRIT   10.000000E+03 
      DIOMOD    1            
         VFB    0            
        LETA    0            
        WETA    0            
          U0    0            
        TEMP    0            
         VDD    5            
       XPART    0            


**** 04/12/18 18:38:42 ******* PSpice Lite (March 2016) ******* ID# 10813 ****

 ** Profile: "SCHEMATIC1-ECE250HW5"  [ C:\Cadence\Pspice Work\ece250hw5-pspicefiles\schematic1\ECE250HW5.sim ] 


 ****     Voltage Controlled Switch MODEL PARAMETERS


******************************************************************************




               S_D14           S_D15           S_D16           S_D17           
         RON     .1              .1              .1              .1          
        ROFF    1.000000E+06    1.000000E+06    1.000000E+06    1.000000E+06 
         VON    1.000000E-03    1.000000E-03    1.000000E-03    1.000000E-03 
        VOFF    0               0               0               0            



          JOB CONCLUDED

**** 04/12/18 18:38:42 ******* PSpice Lite (March 2016) ******* ID# 10813 ****

 ** Profile: "SCHEMATIC1-ECE250HW5"  [ C:\Cadence\Pspice Work\ece250hw5-pspicefiles\schematic1\ECE250HW5.sim ] 


 ****     JOB STATISTICS SUMMARY

 ****     CURRENT STEP                     PARAM VT_VAL =    2     


******************************************************************************



  Total job time (using Solver 1)   =         .49
