
**** 05/20/18 18:39:04 ******* PSpice Lite (March 2016) ******* ID# 10813 ****

 ** Profile: "SCHEMATIC1-ece250hw3"  [ c:\cadence\pspice work\ece250preparepart2-pspicefiles\schematic1\ece250hw3.sim ] 


 ****     CIRCUIT DESCRIPTION


******************************************************************************




** Creating circuit file "ece250hw3.cir" 
** WARNING: THIS AUTOMATICALLY GENERATED FILE MAY BE OVERWRITTEN BY SUBSEQUENT SIMULATIONS

*Libraries: 
* Profile Libraries :
* Local Libraries :
.LIB "../../../ece250preparepart2-pspicefiles/ece250preparepart2.lib" 
* From [PSPICE NETLIST] section of C:\SPB_Data\cdssetup\OrCAD_PSpice\17.2.0\PSpice.ini file:
.lib "nomd.lib" 

*Analysis directives: 
.DC LIN V_V1 0 5 0.001 
.OPTIONS ADVCONV
.PROBE64 V(alias(*)) I(alias(*)) W(alias(*)) D(alias(*)) NOISE(alias(*)) 
.INC "..\SCHEMATIC1.net" 



**** INCLUDING SCHEMATIC1.net ****
* source ECE250PREPAREPART2
M_M2         VO VIN 0 0 Mn  
+ L=1u  
+ W=1u         
V_V1         VIN 0  DC 0
V_V2         N02699 0  DC 5
M_M4         VO VIN N02699 N02699 Mp  
+ L=1u  
+ W=3u         

**** RESUMING ece250hw3.cir ****
.END

**** 05/20/18 18:39:04 ******* PSpice Lite (March 2016) ******* ID# 10813 ****

 ** Profile: "SCHEMATIC1-ece250hw3"  [ c:\cadence\pspice work\ece250preparepart2-pspicefiles\schematic1\ece250hw3.sim ] 


 ****     MOSFET MODEL PARAMETERS


******************************************************************************




               Mn              Mp              
               NMOS            PMOS            
       LEVEL    1               1            
           L  100.000000E-06  100.000000E-06 
           W  100.000000E-06  100.000000E-06 
         VTO    1.5            -1.5          
          KP  300.000000E-06  300.000000E-06 
       GAMMA    0               0            
         PHI     .6              .6          
      LAMBDA     .05            0            
          IS   10.000000E-15   10.000000E-15 
          JS    0               0            
          PB     .8              .8          
        PBSW     .8              .8          
          CJ    0               0            
        CJSW    0               0            
        CGSO    0               0            
        CGDO    0               0            
        CGBO    0               0            
         TOX    0               0            
          XJ    0               0            
       UCRIT   10.000000E+03   10.000000E+03 
      DIOMOD    1               1            
         VFB    0               0            
        LETA    0               0            
        WETA    0               0            
          U0    0               0            
        TEMP    0               0            
         VDD    5               5            
       XPART    0               0            



          JOB CONCLUDED

**** 05/20/18 18:39:04 ******* PSpice Lite (March 2016) ******* ID# 10813 ****

 ** Profile: "SCHEMATIC1-ece250hw3"  [ c:\cadence\pspice work\ece250preparepart2-pspicefiles\schematic1\ece250hw3.sim ] 


 ****     JOB STATISTICS SUMMARY


******************************************************************************



  Total job time (using Solver 1)   =         .05
