
**** 05/20/18 17:34:56 ******* PSpice Lite (March 2016) ******* ID# 10813 ****

 ** Profile: "SCHEMATIC1-hw2"  [ C:\Cadence\Pspice Work\ECE250hw2-PSpiceFiles\SCHEMATIC1\hw2.sim ] 


 ****     CIRCUIT DESCRIPTION


******************************************************************************




** Creating circuit file "hw2.cir" 
** WARNING: THIS AUTOMATICALLY GENERATED FILE MAY BE OVERWRITTEN BY SUBSEQUENT SIMULATIONS

*Libraries: 
* Profile Libraries :
* Local Libraries :
.LIB "../../../ece250hw2-pspicefiles/ece250hw2.lib" 
* From [PSPICE NETLIST] section of C:\SPB_Data\cdssetup\OrCAD_PSpice\17.2.0\PSpice.ini file:
.lib "nomd.lib" 

*Analysis directives: 
.DC LIN V_V3 0 5 0.1 
.OPTIONS ADVCONV
.PROBE64 V(alias(*)) I(alias(*)) W(alias(*)) D(alias(*)) NOISE(alias(*)) 
.INC "..\SCHEMATIC1.net" 



**** INCLUDING SCHEMATIC1.net ****
* source ECE250HW2
V_V1         VIN 0 PWL
+ TIME_SCALE_FACTOR={1/1k}
+ VALUE_SCALE_FACTOR=15
+repeat forever
+(0,0) (0.25,1) (0.75,-1) (1,0)
+endrepeat
R_R1         VOM VOP 3k 
R_R2         VIN VOP 1k 
R_R3         N00180 VOM 1k 
R_R5         VIN2 VO2 1k 
R_R6         0 VO2 1k 
V_V2         VIN2 0 PWL
+ TIME_SCALE_FACTOR={1/1}
+ VALUE_SCALE_FACTOR=15
+repeat forever
+(0,0) (0.25,1) (0.75,-1) (1,0)
+endrepeat
D_D3         VIN2 VO2 Dbreak 
V_V3         VIN3 0  DC 0
M_M1         VO3 VIN3 0 0 Mbreakn           
R_R7         VO3 N01361 10k 
V_Vcc         N01361 0  DC 5
.model         S_D1 VSWITCH Roff=1e6 Ron=0.1 Voff=0 Von=1m
S_SD1         VIN VOP VIN VOP S_D1
.model         S_D2 VSWITCH Roff=1e6 Ron=0.1 Voff=0 Von=1m
S_SD2         0 N00180 0 N00180 S_D2

**** RESUMING hw2.cir ****
.END

**** 05/20/18 17:34:56 ******* PSpice Lite (March 2016) ******* ID# 10813 ****

 ** Profile: "SCHEMATIC1-hw2"  [ C:\Cadence\Pspice Work\ECE250hw2-PSpiceFiles\SCHEMATIC1\hw2.sim ] 


 ****     Diode MODEL PARAMETERS


******************************************************************************




               Dbreak          
          IS   10.000000E-15 
          BV    5            
         IBV    2.000000E-03 
          RS     .1          
         CJO  100.000000E-15 


**** 05/20/18 17:34:56 ******* PSpice Lite (March 2016) ******* ID# 10813 ****

 ** Profile: "SCHEMATIC1-hw2"  [ C:\Cadence\Pspice Work\ECE250hw2-PSpiceFiles\SCHEMATIC1\hw2.sim ] 


 ****     MOSFET MODEL PARAMETERS


******************************************************************************




               Mbreakn         
               NMOS            
       LEVEL    1            
           L  100.000000E-06 
           W  100.000000E-06 
         VTO    1            
          KP  500.000000E-06 
       GAMMA    0            
         PHI     .6          
      LAMBDA    0            
          IS   10.000000E-15 
          JS    0            
          PB     .8          
        PBSW     .8          
          CJ    0            
        CJSW    0            
        CGSO    0            
        CGDO    0            
        CGBO    0            
         TOX    0            
          XJ    0            
       UCRIT   10.000000E+03 
      DIOMOD    1            
         VFB    0            
        LETA    0            
        WETA    0            
          U0    0            
        TEMP    0            
         VDD    5            
       XPART    0            


**** 05/20/18 17:34:56 ******* PSpice Lite (March 2016) ******* ID# 10813 ****

 ** Profile: "SCHEMATIC1-hw2"  [ C:\Cadence\Pspice Work\ECE250hw2-PSpiceFiles\SCHEMATIC1\hw2.sim ] 


 ****     Voltage Controlled Switch MODEL PARAMETERS


******************************************************************************




               S_D1            S_D2            
         RON     .1              .1          
        ROFF    1.000000E+06    1.000000E+06 
         VON    1.000000E-03    1.000000E-03 
        VOFF    0               0            



          JOB CONCLUDED

**** 05/20/18 17:34:56 ******* PSpice Lite (March 2016) ******* ID# 10813 ****

 ** Profile: "SCHEMATIC1-hw2"  [ C:\Cadence\Pspice Work\ECE250hw2-PSpiceFiles\SCHEMATIC1\hw2.sim ] 


 ****     JOB STATISTICS SUMMARY


******************************************************************************



  Total job time (using Solver 1)   =         .02
