
**** 09/11/18 19:39:32 ****** PSpice 17.2.0 (March 2016) ****** ID# 0 ********

 ** Profile: "SCHEMATIC1-ECE351Lab1"  [ C:\Cadence\Pspice Work\ECE351Lab1p2-PSpiceFiles\SCHEMATIC1\ECE351Lab1.sim ] 


 ****     CIRCUIT DESCRIPTION


******************************************************************************




** Creating circuit file "ECE351Lab1.cir" 
** WARNING: THIS AUTOMATICALLY GENERATED FILE MAY BE OVERWRITTEN BY SUBSEQUENT SIMULATIONS

*Libraries: 
* Profile Libraries :
* Local Libraries :
* From [PSPICE NETLIST] section of C:\SPB_Data\cdssetup\OrCAD_PSpice\17.2.0\PSpice.ini file:
.lib "C:\Cadence\RHIT_Libraries\Class.lib" 
.lib "nomd.lib" 

*Analysis directives: 
.TRAN  0 1000ns 0 
.OPTIONS ADVCONV
.PROBE64 V(alias(*)) I(alias(*)) W(alias(*)) D(alias(*)) NOISE(alias(*)) 
.INC "..\SCHEMATIC1.net" 



**** INCLUDING SCHEMATIC1.net ****
* source ECE351LAB1P2
V_V1         N09595 N09599  AC 12 0
D_D1         N09595 N09527 D1N4004 
D_D2         N09599 N09527 D1N4004 
D_D4         N09559 N09599 D1N4004 
D_D3         N09559 N09595 D1N4004 
R_R1         N09559 N09551 10 
X_U1         N09527 N09551 N09559 LM7805C
C_C1         N09527 N09559 680u 

**** RESUMING ECE351Lab1.cir ****
.END

ERROR(ORPSIM-15142): Node N09595 is floating

ERROR(ORPSIM-15142): Node N09599 is floating

ERROR(ORPSIM-15142): Node N09527 is floating

ERROR(ORPSIM-15142): Node N09559 is floating

ERROR(ORPSIM-15142): Node N09551 is floating

ERROR(ORPSIM-15142): Node X_U1.x1.9 is floating

ERROR(ORPSIM-15142): Node X_U1.x1.8 is floating

ERROR(ORPSIM-15142): Node X_U1.x1.5 is floating

ERROR(ORPSIM-15142): Node X_U1.x1.6 is floating

ERROR(ORPSIM-15142): Node X_U1.x1.7 is floating

ERROR(ORPSIM-15142): Node X_U1.x1.4 is floating

ERROR(ORPSIM-15142): Node X_U1.x1.55 is floating

ERROR(ORPSIM-15142): Node X_U1.x1.56 is floating
