
**** 03/28/18 10:53:38 ****** PSpice 17.2.0 (March 2016) ****** ID# 0 ********

 ** Profile: "SCHEMATIC1-Prelab2"  [ c:\cadence\pspice work\prelab 3-PSpiceFiles\SCHEMATIC1\Prelab2.sim ] 


 ****     CIRCUIT DESCRIPTION


******************************************************************************




** Creating circuit file "Prelab2.cir" 
** WARNING: THIS AUTOMATICALLY GENERATED FILE MAY BE OVERWRITTEN BY SUBSEQUENT SIMULATIONS

*Libraries: 
* Profile Libraries :
* Local Libraries :
* From [PSPICE NETLIST] section of C:\SPB_Data\cdssetup\OrCAD_PSpice\17.2.0\PSpice.ini file:
.lib "C:\Cadence\RHIT_Libraries\Class.lib" 
.lib "nom.lib" 

*Analysis directives: 
.TRAN  0 0.05 0 10u 
.OPTIONS ADVCONV
.PROBE64 V(alias(*)) I(alias(*)) W(alias(*)) D(alias(*)) NOISE(alias(*)) 
.INC "..\SCHEMATIC1.net" 



**** INCLUDING SCHEMATIC1.net ****
* source PRELAB 3
V_V1         VIN 0 PWL
+ TIME_SCALE_FACTOR={1/60}
+ VALUE_SCALE_FACTOR=10
+repeat forever
+(0,0) (0.25,1) (0.75,-1) (1,0)
+endrepeat
R_R6         VIN VOUT 1k 
R_R14         0 VOUT4 1k 
V_V9         VIN4 0 PWL
+ TIME_SCALE_FACTOR={1/60}
+ VALUE_SCALE_FACTOR=10
+repeat forever
+(0,0) (0.25,1) (0.75,-1) (1,0)
+endrepeat
D_D18         N09987 VOUT4 D1N4733 
D_D20         0 VOUT D1N4733 
D_D21         VOUT 0 D1N4733 
V_V11         VIN 0 PWL
+ TIME_SCALE_FACTOR={1/60}
+ VALUE_SCALE_FACTOR=10
+repeat forever
+(0,0) (0.25,1) (0.75,-1) (1,0)
+endrepeat
R_R16         VIN VOUT 1k 
D_D22         N09889 0 D1N4733 
D_D23         N09889 VOUT D1N4733 
D_D19         N09987 VIN4 D1N4733 
V_V12         VIN 0 PWL
+ TIME_SCALE_FACTOR={1/60}
+ VALUE_SCALE_FACTOR=10
+repeat forever
+(0,0) (0.25,1) (0.75,-1) (1,0)
+endrepeat
R_R17         VIN VOUT 1k 

**** RESUMING Prelab2.cir ****
.END

ERROR(ORPSIM-15143): Voltage source and/or inductor loop involving V_V11. You may break the loop by adding a series resistance
