
**** 10/30/18 18:36:11 ****** PSpice 17.2.0 (March 2016) ****** ID# 0 ********

 ** Profile: "SCHEMATIC1-bode plot"  [ C:\Cadence\Pspice Work\ece351prelab8-PSpiceFiles\SCHEMATIC1\bode plot.sim ] 


 ****     CIRCUIT DESCRIPTION


******************************************************************************




** Creating circuit file "bode plot.cir" 
** WARNING: THIS AUTOMATICALLY GENERATED FILE MAY BE OVERWRITTEN BY SUBSEQUENT SIMULATIONS

*Libraries: 
* Profile Libraries :
* Local Libraries :
* From [PSPICE NETLIST] section of C:\SPB_Data\cdssetup\OrCAD_PSpice\17.2.0\PSpice.ini file:
.lib "C:\Cadence\RHIT_Libraries\Class.lib" 
.lib "nomd.lib" 

*Analysis directives: 
.AC DEC 10 0.1 10000000
.OPTIONS ADVCONV
.PROBE64 V(alias(*)) I(alias(*)) W(alias(*)) D(alias(*)) NOISE(alias(*)) 
.INC "..\SCHEMATIC1.net" 



**** INCLUDING SCHEMATIC1.net ****
* source ECE351PRELAB8
R_R1         VIN VOUT 10k 
R_R2         VOUT 0 100 
C_C1         VIN VOUT 0.1u 
V_V1         VIN 0  AC 1 0
R_R3         VIN2 N00477 1k 
R_R4         VOUT2 0 1k 
C_C2         N00477 VOUT2 1u 
C_C3         VOUT2 0 10n 
V_V2         VIN2 0  AC 1 0

**** RESUMING "bode plot.cir" ****
.END

**** 10/30/18 18:36:11 ****** PSpice 17.2.0 (March 2016) ****** ID# 0 ********

 ** Profile: "SCHEMATIC1-bode plot"  [ C:\Cadence\Pspice Work\ece351prelab8-PSpiceFiles\SCHEMATIC1\bode plot.sim ] 


 ****     SMALL SIGNAL BIAS SOLUTION       TEMPERATURE =   27.000 DEG C


******************************************************************************



 NODE   VOLTAGE     NODE   VOLTAGE     NODE   VOLTAGE     NODE   VOLTAGE


(  VIN)    0.0000  ( VIN2)    0.0000  ( VOUT)    0.0000  (VOUT2)    0.0000      

(N00477)    0.0000 




    VOLTAGE SOURCE CURRENTS
    NAME         CURRENT

    V_V1         0.000E+00
    V_V2         0.000E+00

    TOTAL POWER DISSIPATION   0.00E+00  WATTS



          JOB CONCLUDED

**** 10/30/18 18:36:11 ****** PSpice 17.2.0 (March 2016) ****** ID# 0 ********

 ** Profile: "SCHEMATIC1-bode plot"  [ C:\Cadence\Pspice Work\ece351prelab8-PSpiceFiles\SCHEMATIC1\bode plot.sim ] 


 ****     JOB STATISTICS SUMMARY


******************************************************************************



  Total job time (using Solver 1)   =         .02
