
**** 12/10/18 00:33:07 ******* PSpice Lite (March 2016) ******* ID# 10813 ****

 ** Profile: "SCHEMATIC1-ece362lowpass"  [ C:\Cadence\Pspice Work\ece362lowpass-PSpiceFiles\SCHEMATIC1\ece362lowpass.sim ] 


 ****     CIRCUIT DESCRIPTION


******************************************************************************




** Creating circuit file "ece362lowpass.cir" 
** WARNING: THIS AUTOMATICALLY GENERATED FILE MAY BE OVERWRITTEN BY SUBSEQUENT SIMULATIONS

*Libraries: 
* Profile Libraries :
* Local Libraries :
* From [PSPICE NETLIST] section of C:\SPB_Data\cdssetup\OrCAD_PSpice\17.2.0\PSpice.ini file:
.lib "nomd.lib" 

*Analysis directives: 
.AC DEC 10 1 100Meg
.OPTIONS ADVCONV
.PROBE64 V(alias(*)) I(alias(*)) W(alias(*)) D(alias(*)) NOISE(alias(*)) 
.INC "..\SCHEMATIC1.net" 



**** INCLUDING SCHEMATIC1.net ****
* source ECE362LOWPASS
R_R1         N00279 N00180 1k 
R_R2         VOUT 0 1k 
R_R3         VOUT N00180 1k 
C_C1         VOUT N00180 1u 
X_U1A         0 N00180 15V -15V VOUT TL072
V_V1         N00279 0  AC 1 0
V_V2         15V 0  DC 15
V_V3         0 -15V  DC 15

**** RESUMING ece362lowpass.cir ****
.END

ERROR(ORPSIM-15108): Subcircuit TL072 used by X_U1A is undefined
