
**** 09/02/18 23:56:28 ******* PSpice Lite (March 2016) ******* ID# 10813 ****

 ** Profile: "SCHEMATIC1-ECE351"  [ C:\Cadence\Pspice Work\ECE351HW1-PSpiceFiles\SCHEMATIC1\ECE351.sim ] 


 ****     CIRCUIT DESCRIPTION


******************************************************************************




** Creating circuit file "ECE351.cir" 
** WARNING: THIS AUTOMATICALLY GENERATED FILE MAY BE OVERWRITTEN BY SUBSEQUENT SIMULATIONS

*Libraries: 
* Profile Libraries :
* Local Libraries :
.LIB "../../../ece351hw1-pspicefiles/ece351hw1.lib" 
* From [PSPICE NETLIST] section of C:\SPB_Data\cdssetup\OrCAD_PSpice\17.2.0\PSpice.ini file:
.lib "nomd.lib" 

*Analysis directives: 
.AC DEC 10 1 1M
-------------$
ERROR(ORPSIM-16103): Invalid value
.OPTIONS ADVCONV
.PROBE64 V(alias(*)) I(alias(*)) W(alias(*)) D(alias(*)) NOISE(alias(*)) 
.INC "..\SCHEMATIC1.net" 



**** INCLUDING SCHEMATIC1.net ****
* source ECE351HW1
V_V12         N09241 0  AC 1 0
V_V10         N09151 0  DC 18
I_I1         N09285 N09289 AC 50uA  0
C_C3         N09285 0 1000u 
R_R15         N09195 N09151 160k 
V_V11         0 N09289  DC 18
Q_Q1         N09195 N09241 N09285 Qn 

**** RESUMING ECE351.cir ****
.END
